
Vdd 1 0 dc 3.3V
D1 7 0 PNPDIODE
D2 9 0 PNPDIODE 8
D3 10 0 PNPDIODE 8


.model nwellResistor R (RSH=929)
RL vref 0 100MEG
.dc temp -40 140 1
.include osu018.lib
.model PNPDIODE D is=1e-18 n=1
.control
run
plot V(vref)
.endc
.end
